Version 4
SHEET 1 1160 2132
WIRE -1280 -112 -1280 -176
WIRE -976 -112 -1280 -112
WIRE -784 -112 -976 -112
WIRE -1280 -96 -1280 -112
WIRE -1376 -16 -1568 -16
WIRE -1280 -16 -1376 -16
WIRE -1376 0 -1376 -16
WIRE -1280 0 -1280 -16
WIRE -976 16 -976 -112
WIRE -960 16 -976 16
WIRE -976 32 -976 16
WIRE -960 48 -960 16
WIRE -1280 96 -1280 80
WIRE -1168 96 -1280 96
WIRE -1024 96 -1168 96
WIRE -1280 128 -1280 96
WIRE -1168 144 -1168 96
WIRE -784 144 -784 -112
WIRE -768 144 -784 144
WIRE -1568 160 -1568 -16
WIRE -768 160 -768 144
WIRE -1376 176 -1376 64
WIRE -1360 176 -1376 176
WIRE -1360 192 -1360 176
WIRE -1328 192 -1360 192
WIRE -960 208 -960 144
WIRE -960 208 -976 208
WIRE -832 208 -960 208
WIRE -976 224 -976 208
WIRE -1280 240 -1280 224
WIRE -1280 240 -1344 240
WIRE -1168 240 -1168 208
WIRE -1168 240 -1280 240
WIRE -1344 256 -1344 240
WIRE -768 272 -768 256
WIRE -768 272 -784 272
WIRE -672 272 -768 272
WIRE -544 272 -592 272
WIRE -784 288 -784 272
WIRE -1280 304 -1280 240
WIRE -1568 384 -1568 224
WIRE -1568 384 -1616 384
WIRE -1376 384 -1376 176
WIRE -1376 384 -1568 384
WIRE -1344 384 -1344 320
WIRE -1344 384 -1376 384
WIRE -1280 384 -1344 384
WIRE -976 384 -976 304
WIRE -976 384 -1280 384
WIRE -784 384 -784 368
WIRE -784 384 -976 384
WIRE -1616 416 -1616 384
WIRE -1840 784 -1984 784
WIRE -1744 784 -1744 768
WIRE -1744 784 -1840 784
WIRE -1984 816 -1984 784
WIRE -1840 816 -1840 784
WIRE -1216 896 -1408 896
WIRE -1984 912 -1984 880
WIRE -1904 912 -1984 912
WIRE -1840 912 -1840 880
WIRE -1840 912 -1904 912
WIRE -1744 912 -1744 784
WIRE -1408 912 -1408 896
WIRE -1408 912 -1744 912
WIRE -1904 944 -1904 912
WIRE -1952 992 -2144 992
WIRE -1840 992 -1952 992
WIRE -1744 992 -1840 992
WIRE -1840 1008 -1840 992
WIRE -1744 1008 -1744 992
WIRE -2144 1024 -2144 992
WIRE -1408 1024 -1408 912
WIRE -1392 1024 -1408 1024
WIRE -1408 1040 -1408 1024
WIRE -1392 1056 -1392 1024
WIRE -1744 1104 -1744 1088
WIRE -1632 1104 -1744 1104
WIRE -1456 1104 -1632 1104
WIRE -1744 1136 -1744 1104
WIRE -2144 1152 -2144 1104
WIRE -1632 1152 -1632 1104
WIRE -1216 1152 -1216 896
WIRE -1200 1152 -1216 1152
WIRE -1952 1168 -1952 992
WIRE -1200 1168 -1200 1152
WIRE -1840 1184 -1840 1072
WIRE -1824 1184 -1840 1184
WIRE -1824 1200 -1824 1184
WIRE -1792 1200 -1824 1200
WIRE -1392 1216 -1392 1152
WIRE -1392 1216 -1408 1216
WIRE -1264 1216 -1392 1216
WIRE -1408 1232 -1408 1216
WIRE -1744 1248 -1744 1232
WIRE -1744 1248 -1808 1248
WIRE -1632 1248 -1632 1216
WIRE -1632 1248 -1744 1248
WIRE -2144 1264 -2144 1216
WIRE -1808 1264 -1808 1248
WIRE -1200 1280 -1200 1264
WIRE -1200 1280 -1216 1280
WIRE -1104 1280 -1200 1280
WIRE -976 1280 -1024 1280
WIRE -1216 1296 -1216 1280
WIRE -1744 1312 -1744 1248
WIRE -1952 1392 -1952 1232
WIRE -1952 1392 -2048 1392
WIRE -1840 1392 -1840 1184
WIRE -1840 1392 -1952 1392
WIRE -1808 1392 -1808 1328
WIRE -1808 1392 -1840 1392
WIRE -1744 1392 -1808 1392
WIRE -1408 1392 -1408 1312
WIRE -1408 1392 -1744 1392
WIRE -1216 1392 -1216 1376
WIRE -1216 1392 -1408 1392
WIRE -2048 1424 -2048 1392
FLAG -1056 -304 0
FLAG -1056 -384 Vcc
FLAG -2144 1264 Antenna
FLAG -1280 -176 Vcc
FLAG -816 -304 0
FLAG -816 -384 Input
FLAG -2048 1424 0
FLAG -1744 768 Vcc
FLAG -1616 416 0
FLAG -1904 944 0
FLAG -480 272 RF
FLAG -912 1280 RF
SYMBOL voltage -1056 -400 R0
WINDOW 123 0 0 Left 0
WINDOW 39 0 0 Left 0
SYMATTR InstName Vcc
SYMATTR Value 5
SYMBOL ind -2160 1008 R0
SYMATTR InstName L2
SYMATTR Value 1m
SYMBOL cap -2160 1152 R0
SYMATTR InstName C4
SYMATTR Value 220n
SYMBOL res -1760 1296 R0
SYMATTR InstName R_Pot_10k_2
SYMATTR Value 470
SYMBOL cap -1824 1264 R0
SYMATTR InstName C8
SYMATTR Value 2.2n
SYMBOL voltage -816 -400 R0
WINDOW 123 0 0 Left 0
WINDOW 39 0 0 Left 0
SYMATTR InstName Signal
SYMATTR Value SINE(0 .1 2k)
SYMBOL cap -1856 1008 R0
SYMATTR InstName C11
SYMATTR Value 10µ
SYMBOL njf -1792 1136 R0
SYMATTR InstName J1
SYMATTR Value J310
SYMBOL ind -1760 992 R0
SYMATTR InstName L4
SYMATTR Value 1m
SYMBOL res -1760 896 R0
SYMATTR InstName R8
SYMATTR Value 100
SYMBOL cap -1648 1152 R0
SYMATTR InstName C12
SYMATTR Value 470p
SYMBOL res -1296 288 R0
SYMATTR InstName R_Pot_10k_1
SYMATTR Value 470
SYMBOL cap -1360 256 R0
SYMATTR InstName C1
SYMATTR Value 2.2n
SYMBOL cap -1392 0 R0
SYMATTR InstName C2
SYMATTR Value 10µ
SYMBOL njf -1328 128 R0
SYMATTR InstName J2
SYMATTR Value J310
SYMBOL ind -1296 -16 R0
SYMATTR InstName L1
SYMATTR Value 1m
SYMBOL res -1296 -112 R0
SYMATTR InstName R2
SYMATTR Value 100
SYMBOL cap -1184 144 R0
SYMATTR InstName C3
SYMATTR Value 470p
SYMBOL cap -1968 1168 R0
SYMATTR InstName Ctune1
SYMBOL cap -1584 160 R0
SYMATTR InstName Ctune2
SYMBOL res -960 320 R180
WINDOW 0 36 76 Left 2
WINDOW 3 36 40 Left 2
SYMATTR InstName R10
SYMATTR Value 2.2k
SYMBOL res -768 384 R180
WINDOW 0 36 76 Left 2
WINDOW 3 36 40 Left 2
SYMATTR InstName R9
SYMATTR Value 470
SYMBOL res -688 288 R270
WINDOW 0 32 56 VTop 2
WINDOW 3 0 56 VBottom 2
SYMATTR InstName R10
SYMATTR Value 47
SYMBOL cap -2000 816 R0
SYMATTR InstName C5
SYMATTR Value 10µ
SYMBOL cap -1856 816 R0
SYMATTR InstName C6
SYMATTR Value 0.1µ
SYMBOL cap -480 256 R90
WINDOW 0 0 32 VBottom 2
WINDOW 3 32 32 VTop 2
SYMATTR InstName C7
SYMATTR Value .1µ
SYMBOL npn -1024 48 R0
SYMATTR InstName Q1
SYMATTR Value 2N5089
SYMBOL npn -832 160 R0
SYMATTR InstName Q2
SYMBOL res -1392 1328 R180
WINDOW 0 36 76 Left 2
WINDOW 3 36 40 Left 2
SYMATTR InstName R1
SYMATTR Value 2.2k
SYMBOL res -1200 1392 R180
WINDOW 0 36 76 Left 2
WINDOW 3 36 40 Left 2
SYMATTR InstName R3
SYMATTR Value 470
SYMBOL res -1120 1296 R270
WINDOW 0 32 56 VTop 2
WINDOW 3 0 56 VBottom 2
SYMATTR InstName R4
SYMATTR Value 47
SYMBOL cap -912 1264 R90
WINDOW 0 0 32 VBottom 2
WINDOW 3 32 32 VTop 2
SYMATTR InstName C9
SYMATTR Value .1µ
SYMBOL npn -1456 1056 R0
SYMATTR InstName Q3
SYMATTR Value 2N5089
SYMBOL npn -1264 1168 R0
SYMATTR InstName Q4
TEXT -1080 -232 Left 2 !.tran 0 3m 0 10n
TEXT -1968 -184 Left 6 ;AM OSCILLATOR
TEXT -1976 632 Left 6 ;FM OSCILLATOR
TEXT -2192 1552 Left 5 ;Caps C7,C6, C19,C20, C1,C2 all np.0 type, all inductors are coilcraft RFB0807B series.
TEXT -1016 416 Left 2 ;Wes Hayward's termination-insensitive output buffer to provide 50 ohms to mixer
TEXT -1136 584 Left 2 ;Both LO and RF go into ADE-1 diode ring mixer, with its IF ports filtered by 10n caps to ground.
TEXT -1368 496 Left 2 ;Insert MC1496 balanced suppressed carrier modulator circuit to use RF as carrier, with simple 2-transistor gain+buffer stage for input signal before modulator.
TEXT -1136 688 Left 2 ;BJT's are actually 2n5088, not 2n5089. 2n3904 also work.
